Version 4
SHEET 1 1268 1440
WIRE 80 -32 64 -32
WIRE 336 -32 80 -32
WIRE -192 -16 0 -32
WIRE -192 -16 -416 -16
WIRE 96 64 80 -32
WIRE 112 64 96 64
WIRE 192 64 176 64
WIRE 304 64 400 -32
WIRE 448 64 400 -32
WIRE 32 96 80 -32
WIRE -528 144 -416 64
WIRE -160 144 -160 80
WIRE -48 144 -80 80
WIRE -48 144 -32 96
WIRE 80 144 -48 144
WIRE 208 144 192 64
WIRE 208 144 240 64
WIRE 208 144 144 144
WIRE 272 144 208 144
WIRE 576 144 512 64
WIRE 576 144 336 144
WIRE 688 144 576 144
WIRE -32 192 -48 144
WIRE -416 224 -528 144
WIRE 192 224 208 144
WIRE 192 224 176 224
WIRE 240 224 208 144
WIRE 512 224 576 144
WIRE -192 304 -416 304
WIRE 688 304 688 224
WIRE 0 320 -192 304
WIRE 80 320 32 192
WIRE 80 320 112 224
WIRE 80 320 64 320
WIRE 336 320 80 320
WIRE 400 320 304 224
WIRE 400 320 448 224
FLAG -160 144 0
FLAG 688 304 0
FLAG -528 144 0
SYMBOL cap 0 -16 R270
WINDOW 0 32 32 VTop 2
WINDOW 3 0 32 VBottom 2
SYMATTR InstName C1
SYMATTR Value 50nf
SYMATTR SpiceLine V=30kV
SYMBOL cap 0 336 R270
WINDOW 0 32 32 VTop 2
WINDOW 3 0 32 VBottom 2
SYMATTR InstName C3
SYMATTR Value 50nf
SYMATTR SpiceLine V=30kV
SYMBOL cap 336 -16 R270
WINDOW 0 32 32 VTop 2
WINDOW 3 0 32 VBottom 2
SYMATTR InstName C5
SYMATTR Value 50nf
SYMATTR SpiceLine V=30kV
SYMBOL voltage -416 -32 R0
WINDOW 123 24 124 Left 2
WINDOW 39 0 0 Left 0
WINDOW 3 24 152 Left 2
SYMATTR InstName V1
SYMATTR Value SINE(0 10000 60)
SYMBOL cap 336 336 R270
WINDOW 0 32 32 VTop 2
WINDOW 3 0 32 VBottom 2
SYMATTR InstName C7
SYMATTR Value 50nf
SYMATTR SpiceLine V=30kV
SYMBOL res 672 128 R0
SYMATTR InstName R1
SYMATTR Value 3.3Meg
SYMBOL cap 80 160 R270
WINDOW 0 32 32 VTop 2
WINDOW 3 0 32 VBottom 2
SYMATTR InstName C2
SYMATTR Value 50nf
SYMATTR SpiceLine V=30kV
SYMBOL cap 272 160 R270
WINDOW 0 32 32 VTop 2
WINDOW 3 0 32 VBottom 2
SYMATTR InstName C4
SYMATTR Value 50nf
SYMATTR SpiceLine V=30kV
SYMBOL diode 512 48 R90
WINDOW 0 0 32 VBottom 2
WINDOW 3 32 32 VTop 0
SYMATTR InstName D2
SYMATTR Value FusorDiodeLetsGoooo
SYMBOL diode 304 48 R90
WINDOW 0 0 32 VBottom 2
WINDOW 3 32 32 VTop 0
SYMATTR InstName D3
SYMATTR Value FusorDiodeLetsGoooo
SYMBOL diode 176 48 R90
WINDOW 0 0 32 VBottom 2
WINDOW 3 32 32 VTop 0
SYMATTR InstName D4
SYMATTR Value FusorDiodeLetsGoooo
SYMBOL diode 32 80 R90
WINDOW 0 0 32 VBottom 2
WINDOW 3 32 32 VTop 0
SYMATTR InstName D5
SYMATTR Value FusorDiodeLetsGoooo
SYMBOL diode 512 208 R90
WINDOW 0 0 32 VBottom 2
WINDOW 3 32 32 VTop 0
SYMATTR InstName D7
SYMATTR Value FusorDiodeLetsGoooo
SYMBOL diode 304 208 R90
WINDOW 0 0 32 VBottom 2
WINDOW 3 32 32 VTop 0
SYMATTR InstName D1
SYMATTR Value FusorDiodeLetsGoooo
SYMBOL diode 176 208 R90
WINDOW 0 0 32 VBottom 2
WINDOW 3 32 32 VTop 0
SYMATTR InstName D6
SYMATTR Value FusorDiodeLetsGoooo
SYMBOL diode 32 176 R90
WINDOW 0 0 32 VBottom 2
WINDOW 3 32 32 VTop 0
SYMATTR InstName D8
SYMATTR Value FusorDiodeLetsGoooo
SYMBOL res -176 96 R270
WINDOW 0 32 56 VTop 2
WINDOW 3 0 56 VBottom 2
SYMATTR InstName R2
SYMATTR Value 100
SYMBOL voltage -416 208 R0
WINDOW 123 24 124 Left 2
WINDOW 39 0 0 Left 0
WINDOW 3 24 152 Left 2
SYMATTR InstName V2
SYMATTR Value SINE(0 10000 60)
TEXT -314 458 Left 2 !.tran 0 3 0 0.1
